Circuit: * C:\users\sabbir\Desktop\306\lab 3\Fig2.asc

Direct Newton iteration for .op point succeeded.

Date: Fri Sep 18 20:21:35 2015
Total elapsed time: 0.128 seconds.

tnom = 27
temp = 27
method = modified trap
totiter = 2099
traniter = 2096
tranpoints = 1049
accept = 1049
rejected = 0
matrix size = 3
fillins = 0
solver = Normal
Matrix Compiler1: 86 bytes object code size  1.2/0.7/[0.5]
Matrix Compiler2: 163 bytes object code size  1.1/0.7/[0.6]


