Circuit: * C:\users\sabbir\Desktop\306\lab 3\uggggh.asc

WARNING: Less than two connections to node A.  This node is used by R5.
Direct Newton iteration for .op point succeeded.

Date: Mon Sep 28 16:28:53 2015
Total elapsed time: 0.059 seconds.

tnom = 27
temp = 27
method = modified trap
totiter = 2097
traniter = 2094
tranpoints = 1048
accept = 1048
rejected = 0
matrix size = 6
fillins = 0
solver = Normal
Matrix Compiler1: 146 bytes object code size  0.6/0.5/[0.5]
Matrix Compiler2: 380 bytes object code size  0.5/0.7/[0.5]


