Circuit: * C:\users\sabbir\Desktop\306\lab 3\Fig5.asc

Direct Newton iteration for .op point succeeded.

Date: Fri Sep 18 20:24:30 2015
Total elapsed time: 0.021 seconds.

tnom = 27
temp = 27
method = trap
totiter = 3
traniter = 0
tranpoints = 0
accept = 0
rejected = 0
matrix size = 5
fillins = 0
solver = Normal
Matrix Compiler1: 114 bytes object code size
Matrix Compiler2: 301 bytes object code size

