Circuit: * C:\users\sabbir\Desktop\306\lab 3\Fig1.asc

Direct Newton iteration for .op point succeeded.

Date: Fri Sep 18 20:24:49 2015
Total elapsed time: 0.073 seconds.

tnom = 27
temp = 27
method = modified trap
totiter = 2099
traniter = 2096
tranpoints = 1049
accept = 1049
rejected = 0
matrix size = 3
fillins = 0
solver = Normal
Matrix Compiler1: 50 bytes object code size  0.5/0.5/[0.4]
Matrix Compiler2: 175 bytes object code size  0.5/0.5/[0.5]


