Circuit: * Z:\home\sabbir\Desktop\f16\CMPE314\project\Draft1.asc


Date: Sun Nov 13 22:02:21 2016
Total elapsed time: 0.090 seconds.

tnom = 27
temp = 27
method = trap
totiter = 26
traniter = 0
tranpoints = 0
accept = 0
rejected = 0
matrix size = 18
fillins = 0
solver = Normal
Matrix Compiler1: 1.05 KB object code size
Matrix Compiler2: 1.49 KB object code size

